1ke7_LS3
     RDKit          3D

 43 47  0  0  0  0  0  0  0  0999 V2000
  -10.9040   52.3420   11.7640 O   0  0  0  0  0  0  0  0  0  0  0  0
  -10.1810   51.8580   12.6210 C   0  0  0  0  0  0  0  0  0  0  0  0
   -9.6360   52.5160   13.7000 N   0  0  0  0  0  0  0  0  0  0  0  0
   -8.8070   51.6750   14.3930 C   0  0  0  0  0  0  0  0  0  0  0  0
   -7.9910   51.8960   15.6130 C   0  0  0  0  0  0  0  0  0  0  0  0
   -7.1270   50.7810   16.1090 C   0  0  0  0  0  0  0  0  0  0  0  0
   -7.0080   49.4830   15.3540 C   0  0  0  0  0  0  0  0  0  0  0  0
   -6.1310   48.4160   15.8190 C   0  0  0  0  0  0  0  0  0  0  0  0
   -5.8260   48.2120   17.1400 O   0  0  0  0  0  0  0  0  0  0  0  0
   -5.1740   47.0060   17.1790 C   0  0  0  0  0  0  0  0  0  0  0  0
   -4.8680   46.5640   15.9390 N   0  0  0  0  0  0  0  0  0  0  0  0
   -5.4560   47.4040   15.0590 C   0  0  0  0  0  0  0  0  0  0  0  0
   -7.8660   49.3200   14.1380 C   0  0  0  0  0  0  0  0  0  0  0  0
   -8.7850   50.3950   13.7060 C   0  0  0  0  0  0  0  0  0  0  0  0
   -9.7470   50.4270   12.6230 C   0  0  0  0  0  0  0  0  0  0  0  0
  -10.1660   49.4010   11.8460 C   0  0  0  0  0  0  0  0  0  0  0  0
  -10.9350   49.3710   10.5820 N   0  0  0  0  0  0  0  0  0  0  0  0
  -11.1100   48.2730    9.7720 C   0  0  0  0  0  0  0  0  0  0  0  0
  -10.0030   47.3340    9.3930 C   0  0  0  0  0  0  0  0  0  0  0  0
  -10.2890   46.1870    8.5310 C   0  0  0  0  0  0  0  0  0  0  0  0
   -9.3280   45.1540    8.0890 C   0  0  0  0  0  0  0  0  0  0  0  0
   -9.9130   44.4410    6.5590 S   0  0  2  0  0  6  0  0  0  0  0  0
   -9.6760   43.0240    6.5080 O   0  0  0  0  0  0  0  0  0  0  0  0
   -9.4500   45.3000    5.5070 O   0  0  0  0  0  0  0  0  0  0  0  0
  -11.6230   44.8620    6.9830 C   0  0  0  0  0  0  0  0  0  0  0  0
  -11.6300   45.9850    7.9660 C   0  0  0  0  0  0  0  0  0  0  0  0
  -12.7550   46.8720    8.3500 C   0  0  0  0  0  0  0  0  0  0  0  0
  -12.4810   48.0250    9.2400 C   0  0  0  0  0  0  0  0  0  0  0  0
   -9.8242   53.4974   13.9496 H   0  0  0  0  0  0  0  0  0  0  0  0
   -8.0213   52.8603   16.1414 H   0  0  0  0  0  0  0  0  0  0  0  0
   -6.5658   50.9115   17.0460 H   0  0  0  0  0  0  0  0  0  0  0  0
   -4.9302   46.4652   18.1053 H   0  0  0  0  0  0  0  0  0  0  0  0
   -5.4231   47.3261   13.9623 H   0  0  0  0  0  0  0  0  0  0  0  0
   -7.8120   48.3872   13.5575 H   0  0  0  0  0  0  0  0  0  0  0  0
   -9.8830   48.4072   12.2233 H   0  0  0  0  0  0  0  0  0  0  0  0
  -11.3788   50.2507   10.2820 H   0  0  0  0  0  0  0  0  0  0  0  0
   -8.9811   47.5071    9.7615 H   0  0  0  0  0  0  0  0  0  0  0  0
   -8.3404   45.6116    7.9299 H   0  0  0  0  0  0  0  0  0  0  0  0
   -9.2409   44.3713    8.8570 H   0  0  0  0  0  0  0  0  0  0  0  0
  -12.1617   45.1673    6.0738 H   0  0  0  0  0  0  0  0  0  0  0  0
  -12.1177   43.9846    7.4252 H   0  0  0  0  0  0  0  0  0  0  0  0
  -13.7730   46.6778    7.9814 H   0  0  0  0  0  0  0  0  0  0  0  0
  -13.3000   48.7071    9.5119 H   0  0  0  0  0  0  0  0  0  0  0  0
  6  5  1  0
  6  7  2  0
  7  8  1  0
  7 13  1  0
  8  9  1  0
  8 12  2  0
 10  9  1  0
 10 11  2  0
 12 11  1  0
 13 14  2  0
 14  4  1  0
 14 15  1  0
 15  2  1  0
 15 16  2  3
 16 17  1  0
 18 17  1  0
 18 19  2  0
 18 28  1  0
 19 20  1  0
 20 21  1  0
 20 26  2  0
 22 21  1  1
 25 22  1  0
 25 26  1  0
 26 27  1  0
 27 28  2  0
  2  1  2  0
  2  3  1  0
  4  3  1  0
  4  5  2  0
 23 22  2  0
 24 22  2  0
  3 29  1  0
  5 30  1  0
  6 31  1  0
 10 32  1  0
 12 33  1  0
 13 34  1  0
 16 35  1  0
 17 36  1  0
 19 37  1  0
 21 38  1  0
 21 39  1  0
 25 40  1  0
 25 41  1  0
 27 42  1  0
 28 43  1  0
M  END
